/*--------------------------------*- C++ -*----------------------------------*\
| =========                 |                                                 |
| \\      /  F ield         | OpenFOAM: The Open Source CFD Toolbox           |
|  \\    /   O peration     | Version:  v1912                                 |
|   \\  /    A nd           | Website:  www.openfoam.com                      |
|    \\/     M anipulation  |                                                 |
\*---------------------------------------------------------------------------*/
FoamFile
{
    version     2.0;
    format      ascii;
    class       dictionary;
    object      changeDictionaryDict;
}
// * * * * * * * * * * * * * * * * * * * * * * * * * * * * * * * * * * * * * //

boundary
{
    INLET
    {
        type            patch;
    }
    TOP
    {
        type            patch;
    }
    OUTLET
    {
        type            patch;
    }
    BOTTOM
    {
        type            wall;
    }
    WALL
    {
        type            wall;
    }
    frontAndBackPlanes
    {
        type            empty;
    }

}


// ************************************************************************* //
