/*--------------------------------*- C++ -*----------------------------------*\
| =========                 |                                                 |
| \\      /  F ield         | OpenFOAM: The Open Source CFD Toolbox           |
|  \\    /   O peration     | Version:  v2106                                 |
|   \\  /    A nd           | Website:  www.openfoam.com                      |
|    \\/     M anipulation  |                                                 |
\*---------------------------------------------------------------------------*/
FoamFile
{
    version	2.0;
    format	ascii;
    class	dictionary;
    object	waveProperties;
}
// * * * * * * * * * * * * * * * * * * * * * * * * * * * * * * * * * * * * * //

seaLevel            1.89;

seaLevelAsReference true;

relaxationNames     ( inlet outlet );

initializationName  outlet;

inletCoeffs
{
    waveType            stokesFifth;
    height              0.63;
    period              2.5;
    depth               1.89;
    stokesDrift         0;
    direction           ( 1 0 0 );
    Tsoft               2.5;
    phi                 0;
    waveNumber          (0.713507 0 0);
    omega               2.51327;

    relaxationZone
    {
        relaxationScheme    Spatial;
        relaxationShape     Rectangular;
        beachType           Empty;
        relaxType           INLET;
        startX              ( 0 -0.1 0 );
        endX                ( 10 5.1 0 );
        orientation         ( 1 0 0 );
    }
}

outletCoeffs
{
    waveType            potentialCurrent;
    U                   ( 0 0 0 );
    Tsoft               2.5;

    relaxationZone
    {
        relaxationScheme    Spatial;
        relaxationShape     Rectangular;
        beachType           Empty;
        relaxType           OUTLET;
        startX              ( 72 -0.1 0 );
        endX                ( 82 5.1 0 );
        orientation         ( 1 0 0 );
    }
}



// ************************************************************************* //
