/*--------------------------------*- C++ -*----------------------------------*\
| =========                 |                                                 |
| \\      /  F ield         | OpenFOAM: The Open Source CFD Toolbox           |
|  \\    /   O peration     | Version:  1.5                                   |
|   \\  /    A nd           | Web:      http://www.OpenFOAM.org               |
|    \\/     M anipulation  |                                                 |
\*---------------------------------------------------------------------------*/
FoamFile
{
    version     2.0;
    format      ascii;
    class       dictionary;
    object      environmentalProperties;
}
// * * * * * * * * * * * * * * * * * * * * * * * * * * * * * * * * * * * * * //

seaLevel	1.89;

seaLevelAsReference true;

// A list of the relaxation zones in the simulation. The parameters are given
// in <name>Coeffs below.
relaxationNames (inlet outlet);

initializationName outlet;

inletCoeffs
{
    // Wave type to be used at boundary "inlet" and in relaxation zone "inlet"
    waveType    stokesFifth;  
    
    // Ramp time of 2 s
    Tsoft       2.5;

    // Water depth at the boundary and in the relaxation zone
    depth       1.89;

    // Wave period
    period      2.5;

    // Phase shift in the wave
    phi         0.000000;

    stokesDrift 0;

    // Wave number vector, k. 
    direction  (1.0 0.0 0.0);

    // Wave height
    height      0.63;
    
    // Specifications on the relaxation zone shape and relaxation scheme
    relaxationZone
    {
        relaxationScheme Spatial;
        relaxationShape  Rectangular;
        beachType        Empty;
        relaxType   INLET;
        startX      (0 0.0 -1);
        endX        (10 0.0  1);
        orientation      (1.0 0.0 0.0);
    }
};

outletCoeffs
{
    waveType    potentialCurrent;
    U           (0 0 0);
    Tsoft       2.5;

    relaxationZone
    {
        relaxationScheme Spatial;
        relaxationShape  Rectangular;
        beachType        Empty;    

        relaxType   OUTLET;
        startX      (72 0.0 -1);
        endX        (82 0.0  1);
        orientation      (1.0 0.0 0.0);
    }
};



// ************************************************************************* //
